// -*- C++ -*-
// File generated by PyFoam - sorry for the ugliness

FoamFile
{
 version 2.0;
 format ascii;
 class dictionary;
 object FxDict;
}

x 14.838123321533203;



// ************************************************************************* //