// -*- C++ -*-
// File generated by PyFoam - sorry for the ugliness

FoamFile
{
 version 2.0;
 format ascii;
 class dictionary;
 object FxDict;
}

x -22.046612203121185;



// ************************************************************************* //